4176748
  -OEChem-08152407313D

 15 14  0     0  0  0  0  0  0999 V2000
   -0.9924   -0.8551    0.1441 S   0  0  0  0  0  0  0  0  0  0  0  0
    0.9923    0.8550    0.1440 S   0  0  0  0  0  0  0  0  0  0  0  0
   -1.9006    1.4619   -0.6098 F   0  0  0  0  0  0  0  0  0  0  0  0
   -3.3174   -0.1865   -0.7809 F   0  0  0  0  0  0  0  0  0  0  0  0
   -2.8483    0.6431    1.1801 F   0  0  0  0  0  0  0  0  0  0  0  0
    3.3201    0.1890   -0.7757 F   0  0  0  0  0  0  0  0  0  0  0  0
    2.8441   -0.6475    1.1808 F   0  0  0  0  0  0  0  0  0  0  0  0
    1.9026   -1.4598   -0.6155 F   0  0  0  0  0  0  0  0  0  0  0  0
   -0.5675   -1.0758   -1.2353 O   0  0  0  0  0  0  0  0  0  0  0  0
   -1.6326   -1.9936    0.7969 O   0  0  0  0  0  0  0  0  0  0  0  0
    1.6325    1.9935    0.7967 O   0  0  0  0  0  0  0  0  0  0  0  0
    0.5671    1.0757   -1.2354 O   0  0  0  0  0  0  0  0  0  0  0  0
    0.0000    0.0001    1.0506 N   0  5  0  0  0  0  0  0  0  0  0  0
   -2.3115    0.3122   -0.0202 C   0  0  0  0  0  0  0  0  0  0  0  0
    2.3115   -0.3123   -0.0203 C   0  0  0  0  0  0  0  0  0  0  0  0
  1  9  2  0  0  0  0
  1 10  2  0  0  0  0
  1 13  1  0  0  0  0
  1 14  1  0  0  0  0
  2 11  2  0  0  0  0
  2 12  2  0  0  0  0
  2 13  1  0  0  0  0
  2 15  1  0  0  0  0
  3 14  1  0  0  0  0
  4 14  1  0  0  0  0
  5 14  1  0  0  0  0
  6 15  1  0  0  0  0
  7 15  1  0  0  0  0
  8 15  1  0  0  0  0
M  CHG  1  13  -1
M  END
> <PUBCHEM_COMPOUND_CID>
4176748